Test_Network/condensed/network_17/Feeder_5/Lines.txt
New Line.LINE1 Bus1=1 Bus2=2 phases=3 Linecode=3c_300_SAC_XC Length=0.79437 Units=m
New Line.LINE2 Bus1=2 Bus2=3 phases=3 Linecode=3c_300_SAC_XC Length=0.123 Units=m
New Line.LINE3 Bus1=3 Bus2=4 phases=3 Linecode=3c_300_SAC_XC Length=0.12315 Units=m
New Line.LINE4 Bus1=4 Bus2=5 phases=3 Linecode=3c_300_SAC_XC Length=0.12332 Units=m
New Line.LINE5 Bus1=5 Bus2=6 phases=3 Linecode=3c_300_SAC_XC Length=0.12238 Units=m
New Line.LINE6 Bus1=6 Bus2=7 phases=3 Linecode=3c_300_SAC_XC Length=0.12355 Units=m
New Line.LINE7 Bus1=7 Bus2=8 phases=3 Linecode=3c_300_SAC_XC Length=0.12215 Units=m
New Line.LINE8 Bus1=8 Bus2=9 phases=3 Linecode=3c_300_SAC_XC Length=0.12355 Units=m
New Line.LINE9 Bus1=9 Bus2=10 phases=3 Linecode=3c_300_SAC_XC Length=0.12355 Units=m
New Line.LINE10 Bus1=10 Bus2=11 phases=3 Linecode=3c_300_SAC_XC Length=2.189 Units=m
New Line.LINE11 Bus1=11 Bus2=12 phases=3 Linecode=3c_300_SAC_XC Length=1.0177 Units=m
New Line.LINE12 Bus1=12 Bus2=13 phases=3 Linecode=3c_300_SAC_XC Length=0.093038 Units=m
New Line.LINE13 Bus1=13 Bus2=14 phases=3 Linecode=3c_300_SAC_XC Length=0.092655 Units=m
New Line.LINE14 Bus1=14 Bus2=15 phases=3 Linecode=3c_300_SAC_XC Length=0.091935 Units=m
New Line.LINE15 Bus1=15 Bus2=16 phases=3 Linecode=3c_300_SAC_XC Length=0.093006 Units=m
New Line.LINE16 Bus1=16 Bus2=17 phases=3 Linecode=3c_300_SAC_XC Length=0.092573 Units=m
New Line.LINE17 Bus1=17 Bus2=18 phases=3 Linecode=3c_300_SAC_XC Length=0.093301 Units=m
New Line.LINE18 Bus1=18 Bus2=19 phases=3 Linecode=3c_300_SAC_XC Length=3.652 Units=m
New Line.LINE19 Bus1=19 Bus2=20 phases=3 Linecode=3c_300_SAC_XC Length=0.23559 Units=m
New Line.LINE20 Bus1=20 Bus2=21 phases=3 Linecode=3c_300_SAC_XC Length=0.23526 Units=m
New Line.LINE21 Bus1=21 Bus2=22 phases=3 Linecode=3c_300_SAC_XC Length=0.235 Units=m
New Line.LINE22 Bus1=22 Bus2=23 phases=3 Linecode=3c_300_SAC_XC Length=0.23483 Units=m
New Line.LINE23 Bus1=23 Bus2=24 phases=3 Linecode=3c_300_SAC_XC Length=0.23548 Units=m
New Line.LINE24 Bus1=24 Bus2=25 phases=3 Linecode=3c_300_SAC_XC Length=0.36405 Units=m
New Line.LINE25 Bus1=25 Bus2=26 phases=3 Linecode=3c_300_SAC_XC Length=1.0081 Units=m
New Line.LINE26 Bus1=26 Bus2=27 phases=3 Linecode=3c_300_SAC_XC Length=0.1367 Units=m
New Line.LINE27 Bus1=27 Bus2=28 phases=3 Linecode=3c_300_SAC_XC Length=29.8356 Units=m
New Line.LINE28 Bus1=28 Bus2=29 phases=3 Linecode=3c_300_SAC_XC Length=0.74403 Units=m
New Line.LINE29 Bus1=29 Bus2=30 phases=3 Linecode=3c_300_SAC_XC Length=0.042953 Units=m
New Line.LINE30 Bus1=30 Bus2=31 phases=3 Linecode=3c_300_SAC_XC Length=0.041617 Units=m
New Line.LINE31 Bus1=31 Bus2=32 phases=3 Linecode=3c_300_SAC_XC Length=0.043139 Units=m
New Line.LINE32 Bus1=32 Bus2=33 phases=3 Linecode=3c_300_SAC_XC Length=0.04134 Units=m
New Line.LINE33 Bus1=33 Bus2=34 phases=3 Linecode=3c_300_SAC_XC Length=0.043081 Units=m
New Line.LINE34 Bus1=34 Bus2=35 phases=3 Linecode=3c_300_SAC_XC Length=0.041593 Units=m
New Line.LINE35 Bus1=35 Bus2=36 phases=3 Linecode=3c_300_SAC_XC Length=0.042013 Units=m
New Line.LINE36 Bus1=36 Bus2=37 phases=3 Linecode=3c_300_SAC_XC Length=0.042753 Units=m
New Line.LINE37 Bus1=37 Bus2=38 phases=3 Linecode=3c_300_SAC_XC Length=3.1574 Units=m
New Line.LINE38 Bus1=38 Bus2=39 phases=3 Linecode=4c_.25 Length=1.2503 Units=m
New Line.LINE39 Bus1=39 Bus2=40 phases=3 Linecode=3c_300_SAC_XC Length=0.91234 Units=m
New Line.LINE40 Bus1=39 Bus2=41 phases=3 Linecode=4c_.25 Length=10.8805 Units=m
New Line.LINE41 Bus1=40 Bus2=42 phases=3 Linecode=3c_300_SAC_XC Length=0.13809 Units=m
New Line.LINE44 Bus1=42 Bus2=45 phases=3 Linecode=3c_300_SAC_XC Length=0.25294 Units=m
New Line.LINE48 Bus1=45 Bus2=49 phases=3 Linecode=4c_.25 Length=5.8542 Units=m
New Line.LINE50 Bus1=47 Bus2=51 phases=3 Linecode=2c_.04 Length=12.2012 Units=m
New Line.LINE52 Bus1=49 Bus2=53 phases=3 Linecode=4c_.25 Length=17.0783 Units=m
New Line.LINE58 Bus1=53 Bus2=59 phases=3 Linecode=4c_.25 Length=27.1081 Units=m
New Line.LINE64 Bus1=59 Bus2=65 phases=3 Linecode=4c_.25 Length=7.9955 Units=m
New Line.LINE70 Bus1=65 Bus2=71 phases=3 Linecode=4c_.25 Length=20.299 Units=m
New Line.LINE76 Bus1=71 Bus2=77 phases=3 Linecode=4c_.25 Length=24.4256 Units=m
New Line.LINE77 Bus1=72 Bus2=78 phases=3 Linecode=2c_.04 Length=4.538 Units=m
New Line.LINE84 Bus1=77 Bus2=85 phases=3 Linecode=4c_.25 Length=3.1516 Units=m
New Line.LINE92 Bus1=85 Bus2=93 phases=3 Linecode=4c_.25 Length=0.366 Units=m
New Line.LINE95 Bus1=89 Bus2=96 phases=3 Linecode=2c_.04 Length=6.8722 Units=m
New Line.LINE101 Bus1=93 Bus2=102 phases=3 Linecode=4c_.25 Length=0.26829 Units=m
New Line.LINE109 Bus1=102 Bus2=110 phases=3 Linecode=4c_.25 Length=0.19163 Units=m
New Line.LINE111 Bus1=104 Bus2=112 phases=3 Linecode=2c_.04 Length=5.5946 Units=m
New Line.LINE117 Bus1=108 Bus2=118 phases=3 Linecode=4c_.25 Length=4.9378 Units=m
New Line.LINE119 Bus1=110 Bus2=120 phases=3 Linecode=4c_.25 Length=8.9153 Units=m
New Line.LINE126 Bus1=118 Bus2=127 phases=3 Linecode=2c_.04 Length=7.5904 Units=m
New Line.LINE127 Bus1=118 Bus2=128 phases=3 Linecode=4c_.25 Length=1.772 Units=m
New Line.LINE129 Bus1=120 Bus2=130 phases=3 Linecode=4c_.25 Length=7.0668 Units=m
New Line.LINE138 Bus1=128 Bus2=139 phases=3 Linecode=25_SAC_XC Length=4.6884 Units=m
New Line.LINE141 Bus1=130 Bus2=142 phases=3 Linecode=4c_.25 Length=9.2881 Units=m
New Line.LINE152 Bus1=142 Bus2=153 phases=3 Linecode=4c_.25 Length=18.6396 Units=m
New Line.LINE158 Bus1=147 Bus2=159 phases=3 Linecode=2c_.04 Length=4.8641 Units=m
New Line.LINE166 Bus1=153 Bus2=167 phases=3 Linecode=4c_.25 Length=18.2891 Units=m
New Line.LINE181 Bus1=167 Bus2=182 phases=3 Linecode=4c_.25 Length=10.0969 Units=m
New Line.LINE195 Bus1=181 Bus2=196 phases=3 Linecode=2c_.04 Length=5.1097 Units=m
New Line.LINE198 Bus1=182 Bus2=199 phases=3 Linecode=2c_.04 Length=4.3768 Units=m
New Line.LINE207 Bus1=191 Bus2=208 phases=3 Linecode=2c_.04 Length=5.5803 Units=m
New Line.LINE229 Bus1=210 Bus2=230 phases=3 Linecode=2c_.04 Length=5.9129 Units=m
New Line.LINE270 Bus1=250 Bus2=271 phases=3 Linecode=4c_.12 Length=15.6927 Units=m
New Line.LINE275 Bus1=254 Bus2=276 phases=3 Linecode=2c_.04 Length=7.3711 Units=m
New Line.LINE287 Bus1=266 Bus2=288 phases=3 Linecode=2c_.04 Length=6.9097 Units=m
New Line.LINE294 Bus1=271 Bus2=295 phases=3 Linecode=4c_.12 Length=16.5942 Units=m
New Line.LINE360 Bus1=336 Bus2=361 phases=3 Linecode=2c_.04 Length=4.844 Units=m
New Line.LINE381 Bus1=354 Bus2=382 phases=3 Linecode=2c_.04 Length=4.8891 Units=m
New Line.LINE383 Bus1=355 Bus2=384 phases=3 Linecode=2c_.04 Length=5.8829 Units=m
New Line.LINE390 Bus1=360 Bus2=391 phases=3 Linecode=2c_.04 Length=4.6643 Units=m
New Line.LINE395 Bus1=365 Bus2=396 phases=3 Linecode=2c_.04 Length=6.0097 Units=m
New Line.LINE400 Bus1=369 Bus2=401 phases=3 Linecode=2c_.04 Length=3.0779 Units=m
New Line.LINE410 Bus1=378 Bus2=411 phases=3 Linecode=4c_.25 Length=21.8352 Units=m
New Line.LINE420 Bus1=388 Bus2=421 phases=3 Linecode=2c_.04 Length=4.2977 Units=m
New Line.LINE430 Bus1=403 Bus2=431 phases=3 Linecode=2c_.04 Length=1.8331 Units=m
New Line.LINE439 Bus1=411 Bus2=440 phases=3 Linecode=2c_.04 Length=8.3802 Units=m
New Line.LINE464 Bus1=436 Bus2=465 phases=3 Linecode=2c_.04 Length=5.3738 Units=m
New Line.LINE474 Bus1=443 Bus2=475 phases=3 Linecode=2c_.04 Length=5.2554 Units=m
New Line.LINE526 Bus1=495 Bus2=527 phases=3 Linecode=2c_.04 Length=3.7675 Units=m
New Line.LINE541 Bus1=509 Bus2=542 phases=3 Linecode=2c_.04 Length=6.0055 Units=m
New Line.LINE617 Bus1=585 Bus2=618 phases=3 Linecode=4c_.25 Length=0.72168 Units=m
New Line.LINE628 Bus1=596 Bus2=629 phases=3 Linecode=4c_.12 Length=5.4361 Units=m
New Line.LINE650 Bus1=614 Bus2=651 phases=3 Linecode=3c_185_SAC_XC Length=2.358 Units=m
New Line.LINE653 Bus1=618 Bus2=654 phases=3 Linecode=4c_.25 Length=7.1219 Units=m
New Line.LINE654 Bus1=619 Bus2=655 phases=3 Linecode=2c_.04 Length=3.8275 Units=m
New Line.LINE656 Bus1=620 Bus2=657 phases=3 Linecode=2c_.04 Length=3.4596 Units=m
New Line.LINE664 Bus1=629 Bus2=665 phases=3 Linecode=2c_.0225 Length=4.5698 Units=m
New Line.LINE671 Bus1=636 Bus2=672 phases=3 Linecode=2c_.04 Length=4.7343 Units=m
New Line.LINE691 Bus1=654 Bus2=692 phases=3 Linecode=4c_.25 Length=9.6338 Units=m
New Line.LINE695 Bus1=660 Bus2=696 phases=3 Linecode=2c_.04 Length=4.1868 Units=m
New Line.LINE701 Bus1=665 Bus2=702 phases=3 Linecode=2c_.0225 Length=0.95239 Units=m
New Line.LINE726 Bus1=692 Bus2=727 phases=3 Linecode=4c_.25 Length=1.2702 Units=m
New Line.LINE735 Bus1=702 Bus2=736 phases=3 Linecode=2c_.0225 Length=0.56051 Units=m
New Line.LINE759 Bus1=727 Bus2=760 phases=3 Linecode=4c_.25 Length=4.4682 Units=m
New Line.LINE768 Bus1=736 Bus2=769 phases=3 Linecode=2c_.0225 Length=0.49578 Units=m
New Line.LINE790 Bus1=760 Bus2=791 phases=3 Linecode=4c_.06 Length=8.2035 Units=m
New Line.LINE798 Bus1=769 Bus2=799 phases=3 Linecode=2c_.0225 Length=0.45951 Units=m
New Line.LINE820 Bus1=791 Bus2=821 phases=3 Linecode=4c_.06 Length=9.9413 Units=m
New Line.LINE824 Bus1=795 Bus2=825 phases=3 Linecode=2c_.04 Length=4.4924 Units=m
New Line.LINE828 Bus1=799 Bus2=829 phases=3 Linecode=2c_.0225 Length=0.49317 Units=m
New Line.LINE848 Bus1=821 Bus2=849 phases=3 Linecode=4c_.06 Length=7.6603 Units=m
New Line.LINE855 Bus1=829 Bus2=856 phases=3 Linecode=2c_.0225 Length=4.4694 Units=m
New Line.LINE873 Bus1=849 Bus2=874 phases=3 Linecode=4c_.06 Length=6.6602 Units=m
New Line.LINE879 Bus1=856 Bus2=880 phases=3 Linecode=2c_.0225 Length=6.8041 Units=m
New Line.LINE896 Bus1=874 Bus2=897 phases=3 Linecode=.04_LTC Length=4.884 Units=m
New Line.LINE902 Bus1=880 Bus2=903 phases=3 Linecode=2c_.0225 Length=0.18263 Units=m
New Line.LINE924 Bus1=900 Bus2=925 phases=3 Linecode=2c_.04 Length=4.5433 Units=m
New Line.LINE928 Bus1=903 Bus2=929 phases=3 Linecode=2c_.0225 Length=0.19642 Units=m
New Line.LINE949 Bus1=924 Bus2=950 phases=3 Linecode=2c_.04 Length=3.9736 Units=m
New Line.LINE954 Bus1=929 Bus2=955 phases=3 Linecode=2c_.0225 Length=0.24586 Units=m
New Line.LINE978 Bus1=954 Bus2=979 phases=3 Linecode=2c_.04 Length=5.6149 Units=m
New Line.LINE980 Bus1=955 Bus2=981 phases=3 Linecode=2c_.0225 Length=0.53043 Units=m
New Line.LINE1003 Bus1=981 Bus2=1004 phases=3 Linecode=2c_.0225 Length=5.1612 Units=m
New Line.LINE1086 Bus1=1068 Bus2=1087 phases=3 Linecode=2c_.04 Length=6.3374 Units=m
New Line.LINE1099 Bus1=1081 Bus2=1100 phases=3 Linecode=4c_.06 Length=0.69623 Units=m
New Line.LINE1100 Bus1=1081 Bus2=1101 phases=3 Linecode=2c_.04 Length=4.0857 Units=m
New Line.LINE1119 Bus1=1100 Bus2=1120 phases=3 Linecode=4c_.6 Length=1.9738 Units=m
New Line.LINE1138 Bus1=1120 Bus2=1139 phases=3 Linecode=4c_.6 Length=1.3877 Units=m
New Line.LINE1143 Bus1=1126 Bus2=1144 phases=3 Linecode=2c_.04 Length=4.5201 Units=m
New Line.LINE1145 Bus1=1127 Bus2=1146 phases=3 Linecode=2c_.04 Length=4.1388 Units=m
New Line.LINE1159 Bus1=1139 Bus2=1160 phases=3 Linecode=4c_.6 Length=1.2415 Units=m
New Line.LINE1178 Bus1=1160 Bus2=1179 phases=3 Linecode=4c_.6 Length=13.2571 Units=m
New Line.LINE1182 Bus1=1164 Bus2=1183 phases=3 Linecode=.04_LTC Length=3.6508 Units=m
New Line.LINE1196 Bus1=1179 Bus2=1197 phases=3 Linecode=4c_.6 Length=10.0561 Units=m
New Line.LINE1210 Bus1=1195 Bus2=1211 phases=3 Linecode=3c_95_SAC_XC Length=5.6944 Units=m
New Line.LINE1213 Bus1=1197 Bus2=1214 phases=3 Linecode=4c_.6 Length=22.0608 Units=m
New Line.LINE1217 Bus1=1201 Bus2=1218 phases=3 Linecode=.04_LTC Length=5.6446 Units=m
New Line.LINE1229 Bus1=1211 Bus2=1230 phases=3 Linecode=3c_95_SAC_XC Length=4.0158 Units=m
New Line.LINE1232 Bus1=1214 Bus2=1233 phases=3 Linecode=2c_.04 Length=5.5568 Units=m
New Line.LINE1247 Bus1=1230 Bus2=1248 phases=3 Linecode=3c_95_SAC_XC Length=3.903 Units=m
New Line.LINE1253 Bus1=1235 Bus2=1254 phases=3 Linecode=2c_.04 Length=4.7978 Units=m
New Line.LINE1254 Bus1=1235 Bus2=1255 phases=3 Linecode=2c_.04 Length=5.3641 Units=m
New Line.LINE1255 Bus1=1236 Bus2=1256 phases=3 Linecode=2c_.04 Length=4.0648 Units=m
New Line.LINE1256 Bus1=1236 Bus2=1257 phases=3 Linecode=2c_.04 Length=5.8221 Units=m
New Line.LINE1275 Bus1=1255 Bus2=1276 phases=3 Linecode=2c_.04 Length=5.031 Units=m
New Line.LINE1277 Bus1=1257 Bus2=1278 phases=3 Linecode=2c_.04 Length=4.9748 Units=m
New Line.LINE1300 Bus1=1280 Bus2=1301 phases=3 Linecode=.04_LTC Length=4.5175 Units=m
New Line.LINE1366 Bus1=1344 Bus2=1367 phases=3 Linecode=2c_.04 Length=5.763 Units=m
New Line.LINE1376 Bus1=1353 Bus2=1377 phases=3 Linecode=3c_95_SAC_XC Length=6.7261 Units=m
New Line.LINE1400 Bus1=1377 Bus2=1401 phases=3 Linecode=3c_95_SAC_XC Length=2.0068 Units=m
New Line.LINE1408 Bus1=1384 Bus2=1409 phases=3 Linecode=3c_95_SAC_XC Length=0.36662 Units=m
New Line.LINE1428 Bus1=1401 Bus2=1429 phases=3 Linecode=35_SAC_PC Length=0.2305 Units=m
New Line.LINE1435 Bus1=1409 Bus2=1436 phases=3 Linecode=3c_95_SAC_XC Length=0.2435 Units=m
New Line.LINE1449 Bus1=1423 Bus2=1450 phases=3 Linecode=.04_LTC Length=3.4203 Units=m
New Line.LINE1454 Bus1=1429 Bus2=1455 phases=3 Linecode=35_SAC_PC Length=0.32475 Units=m
New Line.LINE1461 Bus1=1436 Bus2=1462 phases=3 Linecode=3c_95_SAC_XC Length=0.30936 Units=m
New Line.LINE1479 Bus1=1455 Bus2=1480 phases=3 Linecode=35_SAC_PC Length=0.40983 Units=m
New Line.LINE1484 Bus1=1462 Bus2=1485 phases=3 Linecode=3c_95_SAC_XC Length=0.20319 Units=m
New Line.LINE1493 Bus1=1469 Bus2=1494 phases=3 Linecode=3c_185_SAC_XC Length=4.3065 Units=m
New Line.LINE1501 Bus1=1480 Bus2=1502 phases=3 Linecode=35_SAC_PC Length=0.84697 Units=m
New Line.LINE1505 Bus1=1485 Bus2=1506 phases=3 Linecode=3c_95_SAC_XC Length=0.99199 Units=m
New Line.LINE1515 Bus1=1494 Bus2=1516 phases=3 Linecode=3c_185_SAC_XC Length=4.2019 Units=m
New Line.LINE1516 Bus1=1495 Bus2=1517 phases=3 Linecode=.04_XSC Length=3.8532 Units=m
New Line.LINE1525 Bus1=1502 Bus2=1526 phases=3 Linecode=35_SAC_PC Length=0.13185 Units=m
New Line.LINE1528 Bus1=1506 Bus2=1529 phases=3 Linecode=3c_95_SAC_XC Length=0.80871 Units=m
New Line.LINE1547 Bus1=1526 Bus2=1548 phases=3 Linecode=35_SAC_PC Length=0.20394 Units=m
New Line.LINE1550 Bus1=1529 Bus2=1551 phases=3 Linecode=3c_95_SAC_XC Length=1.2912 Units=m
New Line.LINE1568 Bus1=1548 Bus2=1569 phases=3 Linecode=35_SAC_PC Length=0.80411 Units=m
New Line.LINE1571 Bus1=1551 Bus2=1572 phases=3 Linecode=3c_95_SAC_XC Length=4.1074 Units=m
New Line.LINE1582 Bus1=1561 Bus2=1583 phases=3 Linecode=3c_185_SAC_XC Length=8.5369 Units=m
New Line.LINE1591 Bus1=1569 Bus2=1592 phases=3 Linecode=35_SAC_PC Length=2.0687 Units=m
New Line.LINE1594 Bus1=1572 Bus2=1595 phases=3 Linecode=3c_95_SAC_XC Length=0.4202 Units=m
New Line.LINE1617 Bus1=1592 Bus2=1618 phases=3 Linecode=35_SAC_PC Length=6.8892 Units=m
New Line.LINE1619 Bus1=1594 Bus2=1620 phases=3 Linecode=35_SAC_PC Length=5.1875 Units=m
New Line.LINE1620 Bus1=1594 Bus2=1621 phases=3 Linecode=35_SAC_PC Length=3.2891 Units=m
New Line.LINE1621 Bus1=1595 Bus2=1622 phases=3 Linecode=3c_95_SAC_XC Length=0.30893 Units=m
New Line.LINE1636 Bus1=1610 Bus2=1637 phases=3 Linecode=2c_.04 Length=5.0182 Units=m
New Line.LINE1645 Bus1=1618 Bus2=1646 phases=3 Linecode=35_SAC_PC Length=0.40426 Units=m
New Line.LINE1647 Bus1=1622 Bus2=1648 phases=3 Linecode=3c_95_SAC_XC Length=0.28685 Units=m
New Line.LINE1668 Bus1=1646 Bus2=1669 phases=3 Linecode=35_SAC_PC Length=4.6701 Units=m
New Line.LINE1670 Bus1=1648 Bus2=1671 phases=3 Linecode=3c_95_SAC_XC Length=0.46952 Units=m
New Line.LINE1692 Bus1=1671 Bus2=1693 phases=3 Linecode=3c_95_SAC_XC Length=0.40418 Units=m
New Line.LINE1697 Bus1=1675 Bus2=1698 phases=3 Linecode=3c_95_SAC_XC Length=2.5004 Units=m
New Line.LINE1710 Bus1=1693 Bus2=1711 phases=3 Linecode=25_SAC_XC Length=5.2142 Units=m
New Line.LINE1722 Bus1=1702 Bus2=1723 phases=3 Linecode=3c_185_SAC_XC Length=0.83657 Units=m
New Line.LINE1731 Bus1=1711 Bus2=1732 phases=3 Linecode=25_SAC_XC Length=0.1636 Units=m
New Line.LINE1743 Bus1=1723 Bus2=1744 phases=3 Linecode=3c_185_SAC_XC Length=1.399 Units=m
New Line.LINE1753 Bus1=1732 Bus2=1754 phases=3 Linecode=25_SAC_XC Length=0.26792 Units=m
New Line.LINE1762 Bus1=1741 Bus2=1763 phases=3 Linecode=3c_95_SAC_XC Length=6.2107 Units=m
New Line.LINE1763 Bus1=1744 Bus2=1764 phases=3 Linecode=3c_185_SAC_XC Length=1.3615 Units=m
New Line.LINE1773 Bus1=1754 Bus2=1774 phases=3 Linecode=25_SAC_XC Length=0.31427 Units=m
New Line.LINE1785 Bus1=1764 Bus2=1786 phases=3 Linecode=3c_185_SAC_XC Length=1.2713 Units=m
New Line.LINE1793 Bus1=1774 Bus2=1794 phases=3 Linecode=25_SAC_XC Length=0.12105 Units=m
New Line.LINE1805 Bus1=1786 Bus2=1806 phases=3 Linecode=3c_185_SAC_XC Length=1.2761 Units=m
New Line.LINE1813 Bus1=1794 Bus2=1814 phases=3 Linecode=25_SAC_XC Length=0.18436 Units=m
New Line.LINE1826 Bus1=1806 Bus2=1827 phases=3 Linecode=3c_185_SAC_XC Length=1.4478 Units=m
New Line.LINE1834 Bus1=1814 Bus2=1835 phases=3 Linecode=25_SAC_XC Length=5.8966 Units=m
New Line.LINE1847 Bus1=1827 Bus2=1848 phases=3 Linecode=3c_185_SAC_XC Length=1.3361 Units=m
New Line.LINE1867 Bus1=1848 Bus2=1868 phases=3 Linecode=3c_185_SAC_XC Length=1.2888 Units=m
New Line.LINE1872 Bus1=1853 Bus2=1873 phases=3 Linecode=3c_95_SAC_XC Length=1.7996 Units=m
New Line.LINE1886 Bus1=1868 Bus2=1887 phases=3 Linecode=3c_185_SAC_XC Length=0.87987 Units=m
New Line.LINE1895 Bus1=1876 Bus2=1896 phases=3 Linecode=25_SAC_XC Length=7.8469 Units=m
New Line.LINE1905 Bus1=1887 Bus2=1906 phases=3 Linecode=3c_185_SAC_XC Length=1.0689 Units=m
New Line.LINE1926 Bus1=1906 Bus2=1927 phases=3 Linecode=3c_185_SAC_XC Length=0.63287 Units=m
New Line.LINE1930 Bus1=1910 Bus2=1931 phases=3 Linecode=3c_95_SAC_XC Length=3.4303 Units=m
New Line.LINE1947 Bus1=1927 Bus2=1948 phases=3 Linecode=3c_95_SAC_XC Length=0.45979 Units=m
New Line.LINE1968 Bus1=1948 Bus2=1969 phases=3 Linecode=3c_95_SAC_XC Length=0.60849 Units=m
New Line.LINE1988 Bus1=1969 Bus2=1989 phases=3 Linecode=3c_95_SAC_XC Length=0.47057 Units=m
New Line.LINE1992 Bus1=1973 Bus2=1993 phases=3 Linecode=3c_95_SAC_XC Length=2.9214 Units=m
New Line.LINE2008 Bus1=1989 Bus2=2009 phases=3 Linecode=3c_95_SAC_XC Length=0.24652 Units=m
New Line.LINE2012 Bus1=1993 Bus2=2013 phases=3 Linecode=3c_95_SAC_XC Length=1.8222 Units=m
New Line.LINE2030 Bus1=2009 Bus2=2031 phases=3 Linecode=3c_95_SAC_XC Length=0.10246 Units=m
New Line.LINE2053 Bus1=2031 Bus2=2054 phases=3 Linecode=3c_95_SAC_XC Length=6.6013 Units=m
New Line.LINE2075 Bus1=2054 Bus2=2076 phases=3 Linecode=3c_95_SAC_XC Length=0.18913 Units=m
New Line.LINE2098 Bus1=2076 Bus2=2099 phases=3 Linecode=3c_95_SAC_XC Length=0.24877 Units=m
New Line.LINE2122 Bus1=2099 Bus2=2123 phases=3 Linecode=3c_95_SAC_XC Length=0.37435 Units=m
New Line.LINE2124 Bus1=2102 Bus2=2125 phases=3 Linecode=3c_95_SAC_XC Length=4.3646 Units=m
New Line.LINE2146 Bus1=2123 Bus2=2147 phases=3 Linecode=3c_95_SAC_XC Length=0.35751 Units=m
New Line.LINE2169 Bus1=2147 Bus2=2170 phases=3 Linecode=3c_95_SAC_XC Length=0.52365 Units=m
New Line.LINE2222 Bus1=2196 Bus2=2223 phases=3 Linecode=3c_95_SAC_XC Length=4.2274 Units=m
New Line.LINE2250 Bus1=2223 Bus2=2251 phases=3 Linecode=3c_95_SAC_XC Length=2.7155 Units=m
New Line.LINE2262 Bus1=2235 Bus2=2263 phases=3 Linecode=3c_95_SAC_XC Length=1.4598 Units=m
New Line.LINE2279 Bus1=2251 Bus2=2280 phases=3 Linecode=3c_95_SAC_XC Length=5.1395 Units=m
New Line.LINE2290 Bus1=2263 Bus2=2291 phases=3 Linecode=3c_95_SAC_XC Length=3.3282 Units=m
New Line.LINE2307 Bus1=2280 Bus2=2308 phases=3 Linecode=3c_95_SAC_XC Length=4.5172 Units=m
New Line.LINE2332 Bus1=2308 Bus2=2333 phases=3 Linecode=35_SAC_PC Length=0.27432 Units=m
New Line.LINE2359 Bus1=2333 Bus2=2360 phases=3 Linecode=35_SAC_PC Length=0.4457 Units=m
New Line.LINE2370 Bus1=2346 Bus2=2371 phases=3 Linecode=3c_95_SAC_XC Length=2.3836 Units=m
New Line.LINE2383 Bus1=2360 Bus2=2384 phases=3 Linecode=35_SAC_PC Length=0.50224 Units=m
New Line.LINE2395 Bus1=2371 Bus2=2396 phases=3 Linecode=3c_95_SAC_XC Length=3.4374 Units=m
New Line.LINE2407 Bus1=2384 Bus2=2408 phases=3 Linecode=35_SAC_PC Length=0.23163 Units=m
New Line.LINE2420 Bus1=2396 Bus2=2421 phases=3 Linecode=3c_95_SAC_XC Length=4.7654 Units=m
New Line.LINE2434 Bus1=2408 Bus2=2435 phases=3 Linecode=35_SAC_PC Length=0.21894 Units=m
New Line.LINE2446 Bus1=2421 Bus2=2447 phases=3 Linecode=3c_95_SAC_XC Length=0.85381 Units=m
New Line.LINE2460 Bus1=2435 Bus2=2461 phases=3 Linecode=35_SAC_PC Length=0.26483 Units=m
New Line.LINE2471 Bus1=2447 Bus2=2472 phases=3 Linecode=3c_95_SAC_XC Length=6.1435 Units=m
New Line.LINE2485 Bus1=2461 Bus2=2486 phases=3 Linecode=35_SAC_PC Length=0.79699 Units=m
New Line.LINE2496 Bus1=2472 Bus2=2497 phases=3 Linecode=3c_95_SAC_XC Length=3.3147 Units=m
New Line.LINE2512 Bus1=2486 Bus2=2513 phases=3 Linecode=35_SAC_PC Length=6.3987 Units=m
New Line.LINE2521 Bus1=2497 Bus2=2522 phases=3 Linecode=25_SAC_XC Length=11.1519 Units=m
New Line.LINE2539 Bus1=2513 Bus2=2540 phases=3 Linecode=35_SAC_PC Length=0.2036 Units=m
New Line.LINE2547 Bus1=2522 Bus2=2548 phases=3 Linecode=25_SAC_XC Length=7.1482 Units=m
New Line.LINE2566 Bus1=2540 Bus2=2567 phases=3 Linecode=35_SAC_PC Length=0.32571 Units=m
New Line.LINE2580 Bus1=2561 Bus2=2581 phases=3 Linecode=3c_95_SAC_XC Length=8.4954 Units=m
New Line.LINE2586 Bus1=2567 Bus2=2587 phases=3 Linecode=35_SAC_PC Length=3.4212 Units=m
New Line.LINE2599 Bus1=2581 Bus2=2600 phases=3 Linecode=25_SAC_XC Length=4.5651 Units=m
New Line.LINECmpd_0 Bus1=51 Bus2=104 phases=3 Linecode=2c_.04 Length=3.7365 Units=m
New Line.LINECmpd_1 Bus1=660 Bus2=954 phases=3 Linecode=2c_.04 Length=9.70621 Units=m
New Line.LINECmpd_2 Bus1=355 Bus2=840 phases=3 Linecode=2c_.04 Length=13.52478 Units=m
New Line.LINECmpd_3 Bus1=1068 Bus2=1284 phases=3 Linecode=2c_.04 Length=19.14182 Units=m
New Line.LINECmpd_4 Bus1=2196 Bus2=2726 phases=3 Linecode=35_SAC_PC Length=22.266617 Units=m
New Line.LINECmpd_5 Bus1=2561 Bus2=2735 phases=3 Linecode=35_SAC_PC Length=13.926302 Units=m
New Line.LINECmpd_6 Bus1=651 Bus2=1195 phases=3 Linecode=3c_185_SAC_XC Length=19.77234 Units=m
New Line.LINECmpd_7 Bus1=440 Bus2=636 phases=3 Linecode=2c_.04 Length=2.41551 Units=m
New Line.LINECmpd_8 Bus1=2396 Bus2=2570 phases=3 Linecode=35_SAC_PC Length=9.77712 Units=m
New Line.LINECmpd_9 Bus1=421 Bus2=620 phases=3 Linecode=2c_.04 Length=6.33056 Units=m
New Line.LINECmpd_10 Bus1=325 Bus2=742 phases=3 Linecode=2c_.04 Length=18.23872 Units=m
New Line.LINECmpd_11 Bus1=378 Bus2=574 phases=3 Linecode=2c_.04 Length=8.80982 Units=m
New Line.LINECmpd_12 Bus1=1495 Bus2=1765 phases=3 Linecode=2c_.04 Length=21.7799 Units=m
New Line.LINECmpd_13 Bus1=1574 Bus2=2292 phases=3 Linecode=35_SAC_PC Length=33.898363 Units=m
New Line.LINECmpd_14 Bus1=2402 Bus2=2743 phases=3 Linecode=35_SAC_PC Length=40.229619 Units=m
New Line.LINECmpd_15 Bus1=870 Bus2=1194 phases=3 Linecode=35_SAC_PC Length=13.21552 Units=m
New Line.LINECmpd_16 Bus1=897 Bus2=1280 phases=3 Linecode=.04_LTC Length=9.666352 Units=m
New Line.LINECmpd_17 Bus1=870 Bus2=1228 phases=3 Linecode=35_SAC_PC Length=15.33918 Units=m
New Line.LINECmpd_18 Bus1=1294 Bus2=1575 phases=3 Linecode=35_SAC_PC Length=12.72465 Units=m
New Line.LINECmpd_19 Bus1=636 Bus2=1111 phases=3 Linecode=2c_.04 Length=24.23368 Units=m
New Line.LINECmpd_20 Bus1=531 Bus2=1030 phases=3 Linecode=16_PSC Length=5.601234 Units=m
New Line.LINECmpd_21 Bus1=1905 Bus2=2349 phases=3 Linecode=35_SAC_PC Length=29.624 Units=m
New Line.LINECmpd_22 Bus1=944 Bus2=1177 phases=3 Linecode=35_SAC_XC Length=8.6595 Units=m
New Line.LINECmpd_23 Bus1=1377 Bus2=1773 phases=3 Linecode=35_SAC_PC Length=18.91715 Units=m
New Line.LINECmpd_24 Bus1=1698 Bus2=2294 phases=3 Linecode=35_SAC_PC Length=26.813091 Units=m
New Line.LINECmpd_25 Bus1=574 Bus2=836 phases=3 Linecode=2c_.04 Length=8.51361 Units=m
New Line.LINECmpd_26 Bus1=199 Bus2=360 phases=3 Linecode=2c_.04 Length=4.22762 Units=m
New Line.LINECmpd_27 Bus1=336 Bus2=660 phases=3 Linecode=2c_.04 Length=7.06655 Units=m
New Line.LINECmpd_28 Bus1=2067 Bus2=2391 phases=3 Linecode=35_SAC_PC Length=14.42078 Units=m
New Line.LINECmpd_29 Bus1=165 Bus2=254 phases=3 Linecode=4c_.25 Length=34.2188 Units=m
New Line.LINECmpd_30 Bus1=2396 Bus2=2751 phases=3 Linecode=35_SAC_PC Length=25.11679 Units=m
New Line.LINECmpd_31 Bus1=1675 Bus2=1879 phases=3 Linecode=35_SAC_PC Length=12.41131 Units=m
New Line.LINECmpd_32 Bus1=354 Bus2=865 phases=3 Linecode=2c_.04 Length=11.6468 Units=m
New Line.LINECmpd_33 Bus1=1993 Bus2=2541 phases=3 Linecode=35_SAC_PC Length=23.285604 Units=m
New Line.LINECmpd_34 Bus1=954 Bus2=1168 phases=3 Linecode=2c_.04 Length=17.71973 Units=m
New Line.LINECmpd_35 Bus1=1561 Bus2=1742 phases=3 Linecode=35_SAC_PC Length=10.18527 Units=m
New Line.LINECmpd_36 Bus1=360 Bus2=795 phases=3 Linecode=2c_.04 Length=7.63755 Units=m
New Line.LINECmpd_37 Bus1=2196 Bus2=2696 phases=3 Linecode=35_SAC_PC Length=20.291994 Units=m
New Line.LINECmpd_38 Bus1=585 Bus2=944 phases=3 Linecode=4c_.06 Length=15.86855 Units=m
New Line.LINECmpd_39 Bus1=2396 Bus2=2749 phases=3 Linecode=35_SAC_PC Length=20.0191 Units=m
New Line.LINECmpd_40 Bus1=548 Bus2=888 phases=3 Linecode=35_SAC_PC Length=13.15167 Units=m
New Line.LINECmpd_41 Bus1=305 Bus2=548 phases=3 Linecode=3c_185_SAC_XC Length=26.04046 Units=m
New Line.LINECmpd_42 Bus1=1568 Bus2=1730 phases=3 Linecode=3c_95_SAC_XC Length=11.9803 Units=m
New Line.LINECmpd_43 Bus1=1423 Bus2=2124 phases=3 Linecode=.04_LTC Length=23.91264 Units=m
New Line.LINECmpd_44 Bus1=2251 Bus2=2586 phases=3 Linecode=35_SAC_PC Length=11.27018 Units=m
New Line.LINECmpd_45 Bus1=1698 Bus2=2397 phases=3 Linecode=35_SAC_PC Length=25.082054 Units=m
New Line.LINECmpd_46 Bus1=2223 Bus2=2605 phases=3 Linecode=35_SAC_PC Length=11.63297 Units=m
New Line.LINECmpd_47 Bus1=651 Bus2=870 phases=3 Linecode=35_SAC_PC Length=7.89227 Units=m
New Line.LINECmpd_48 Bus1=620 Bus2=900 phases=3 Linecode=2c_.04 Length=6.64942 Units=m
New Line.LINECmpd_49 Bus1=76 Bus2=147 phases=3 Linecode=2c_.04 Length=12.92772 Units=m
New Line.LINECmpd_50 Bus1=1763 Bus2=2295 phases=3 Linecode=35_SAC_PC Length=23.659438 Units=m
New Line.LINECmpd_51 Bus1=1763 Bus2=2551 phases=3 Linecode=35_SAC_PC Length=33.530847 Units=m
New Line.LINECmpd_52 Bus1=1905 Bus2=2553 phases=3 Linecode=35_SAC_PC Length=31.72572 Units=m
New Line.LINECmpd_53 Bus1=795 Bus2=1068 phases=3 Linecode=2c_.04 Length=9.90923 Units=m
New Line.LINECmpd_54 Bus1=1249 Bus2=1532 phases=3 Linecode=35_SAC_PC Length=9.71215 Units=m
New Line.LINECmpd_55 Bus1=2196 Bus2=2744 phases=3 Linecode=35_SAC_PC Length=27.227921 Units=m
New Line.LINECmpd_56 Bus1=1463 Bus2=1857 phases=3 Linecode=35_SAC_PC Length=28.27173 Units=m
New Line.LINECmpd_57 Bus1=1574 Bus2=1675 phases=3 Linecode=3c_95_SAC_XC Length=14.6354 Units=m
New Line.LINECmpd_58 Bus1=614 Bus2=1309 phases=3 Linecode=35_SAC_PC Length=31.34884 Units=m
New Line.LINECmpd_59 Bus1=897 Bus2=1164 phases=3 Linecode=.04_LTC Length=7.949842 Units=m
New Line.LINECmpd_60 Bus1=2402 Bus2=2716 phases=3 Linecode=35_SAC_PC Length=22.069137 Units=m
New Line.LINECmpd_61 Bus1=596 Bus2=1169 phases=3 Linecode=3c_95_SAC_XC Length=31.52153 Units=m
New Line.LINECmpd_62 Bus1=266 Bus2=733 phases=3 Linecode=2c_.04 Length=14.398787 Units=m
New Line.LINECmpd_63 Bus1=1169 Bus2=1353 phases=3 Linecode=3c_95_SAC_XC Length=15.02942 Units=m
New Line.LINECmpd_64 Bus1=2013 Bus2=2102 phases=3 Linecode=3c_95_SAC_XC Length=10.4101 Units=m
New Line.LINECmpd_65 Bus1=1249 Bus2=1294 phases=3 Linecode=3c_185_SAC_XC Length=2.74957 Units=m
New Line.LINECmpd_66 Bus1=1973 Bus2=2258 phases=3 Linecode=35_SAC_PC Length=9.96559 Units=m
New Line.LINECmpd_67 Bus1=1610 Bus2=1928 phases=3 Linecode=2c_.04 Length=12.046166 Units=m
New Line.LINECmpd_68 Bus1=1835 Bus2=1875 phases=3 Linecode=25_SAC_XC Length=7.65328 Units=m
New Line.LINECmpd_69 Bus1=882 Bus2=1071 phases=3 Linecode=2c_.0225 Length=7.42358 Units=m
New Line.LINECmpd_70 Bus1=900 Bus2=1127 phases=3 Linecode=2c_.04 Length=8.85999 Units=m
New Line.LINECmpd_71 Bus1=1873 Bus2=2260 phases=3 Linecode=35_SAC_PC Length=13.06798 Units=m
New Line.LINECmpd_72 Bus1=47 Bus2=76 phases=3 Linecode=4c_.25 Length=31.39853 Units=m
New Line.LINECmpd_73 Bus1=1248 Bus2=1459 phases=3 Linecode=35_SAC_PC Length=10.70443 Units=m
New Line.LINECmpd_74 Bus1=276 Bus2=443 phases=3 Linecode=2c_.04 Length=5.98205 Units=m
New Line.LINECmpd_75 Bus1=463 Bus2=882 phases=3 Linecode=2c_.0225 Length=10.20128 Units=m
New Line.LINECmpd_76 Bus1=2125 Bus2=2436 phases=3 Linecode=35_SAC_PC Length=12.55506 Units=m
New Line.LINECmpd_77 Bus1=2102 Bus2=2514 phases=3 Linecode=35_SAC_PC Length=13.091863 Units=m
New Line.LINECmpd_78 Bus1=1501 Bus2=1831 phases=3 Linecode=35_SAC_PC Length=16.52754 Units=m
New Line.LINECmpd_79 Bus1=1211 Bus2=1483 phases=3 Linecode=35_SAC_PC Length=10.39238 Units=m
New Line.LINECmpd_80 Bus1=509 Bus2=962 phases=3 Linecode=2c_.04 Length=12.2556 Units=m
New Line.LINECmpd_81 Bus1=1274 Bus2=1495 phases=3 Linecode=2c_.04 Length=11.06618 Units=m
New Line.LINECmpd_82 Bus1=1101 Bus2=1235 phases=3 Linecode=2c_.04 Length=9.41385 Units=m
New Line.LINECmpd_83 Bus1=250 Bus2=369 phases=3 Linecode=2c_.04 Length=12.18544 Units=m
New Line.LINECmpd_84 Bus1=882 Bus2=1190 phases=3 Linecode=2c_.0225 Length=6.7369 Units=m
New Line.LINECmpd_85 Bus1=72 Bus2=87 phases=3 Linecode=2c_.04 Length=9.0645 Units=m
New Line.LINECmpd_86 Bus1=2170 Bus2=2401 phases=3 Linecode=35_SAC_PC Length=11.62978 Units=m
New Line.LINECmpd_87 Bus1=1101 Bus2=1236 phases=3 Linecode=2c_.04 Length=8.54567 Units=m
New Line.LINECmpd_88 Bus1=195 Bus2=354 phases=3 Linecode=2c_.04 Length=6.302291 Units=m
New Line.LINECmpd_89 Bus1=127 Bus2=191 phases=3 Linecode=2c_.04 Length=2.64085 Units=m
New Line.LINECmpd_90 Bus1=1169 Bus2=1501 phases=3 Linecode=3c_95_SAC_XC Length=23.8471 Units=m
New Line.LINECmpd_91 Bus1=1201 Bus2=1890 phases=3 Linecode=.04_LTC Length=23.1639 Units=m
New Line.LINECmpd_92 Bus1=1993 Bus2=2389 phases=3 Linecode=35_SAC_PC Length=24.55547 Units=m
New Line.LINECmpd_93 Bus1=2402 Bus2=2691 phases=3 Linecode=35_SAC_PC Length=27.512041 Units=m
New Line.LINECmpd_94 Bus1=614 Bus2=1056 phases=3 Linecode=35_SAC_PC Length=12.20428 Units=m
New Line.LINECmpd_95 Bus1=2507 Bus2=2692 phases=3 Linecode=35_SAC_PC Length=13.409998 Units=m
New Line.LINECmpd_96 Bus1=2371 Bus2=2492 phases=3 Linecode=35_SAC_PC Length=9.46769 Units=m
New Line.LINECmpd_97 Bus1=207 Bus2=316 phases=3 Linecode=2c_.04 Length=15.83998 Units=m
New Line.LINECmpd_98 Bus1=2402 Bus2=2715 phases=3 Linecode=35_SAC_PC Length=19.60103 Units=m
New Line.LINECmpd_99 Bus1=89 Bus2=266 phases=3 Linecode=2c_.04 Length=8.13686 Units=m
New Line.LINECmpd_100 Bus1=1931 Bus2=2180 phases=3 Linecode=35_SAC_PC Length=10.49734 Units=m
New Line.LINECmpd_101 Bus1=531 Bus2=802 phases=3 Linecode=2c_.04 Length=6.20342 Units=m
New Line.LINECmpd_102 Bus1=92 Bus2=181 phases=3 Linecode=2c_.04 Length=11.47103 Units=m
New Line.LINECmpd_103 Bus1=182 Bus2=305 phases=3 Linecode=4c_.25 Length=54.4858 Units=m
New Line.LINECmpd_104 Bus1=1257 Bus2=1685 phases=3 Linecode=2c_.04 Length=19.421523 Units=m
New Line.LINECmpd_105 Bus1=614 Bus2=1171 phases=3 Linecode=35_SAC_PC Length=16.56836 Units=m
New Line.LINECmpd_106 Bus1=1876 Bus2=1914 phases=3 Linecode=25_SAC_XC Length=8.49238 Units=m
New Line.LINECmpd_107 Bus1=1248 Bus2=1314 phases=3 Linecode=3c_95_SAC_XC Length=4.10541 Units=m
New Line.LINECmpd_108 Bus1=1230 Bus2=1405 phases=3 Linecode=35_SAC_PC Length=9.45693 Units=m
New Line.LINECmpd_109 Bus1=436 Bus2=860 phases=3 Linecode=2c_.04 Length=16.1869 Units=m
New Line.LINECmpd_110 Bus1=1730 Bus2=2034 phases=3 Linecode=35_SAC_PC Length=14.5122 Units=m
New Line.LINECmpd_111 Bus1=1730 Bus2=1853 phases=3 Linecode=3c_95_SAC_XC Length=13.2001 Units=m
New Line.LINECmpd_112 Bus1=1568 Bus2=1811 phases=3 Linecode=35_SAC_PC Length=9.69247 Units=m
New Line.LINECmpd_113 Bus1=1494 Bus2=1699 phases=3 Linecode=35_SAC_PC Length=10.06611 Units=m
New Line.LINECmpd_114 Bus1=2396 Bus2=2676 phases=3 Linecode=35_SAC_PC Length=15.88466 Units=m
New Line.LINECmpd_115 Bus1=2125 Bus2=2196 phases=3 Linecode=3c_95_SAC_XC Length=7.23689 Units=m
New Line.LINECmpd_116 Bus1=1274 Bus2=1471 phases=3 Linecode=35_SAC_XSC Length=6.71992 Units=m
New Line.LINECmpd_117 Bus1=1126 Bus2=1397 phases=3 Linecode=2c_.04 Length=18.90997 Units=m
New Line.LINECmpd_118 Bus1=2067 Bus2=2235 phases=3 Linecode=3c_95_SAC_XC Length=5.69162 Units=m
New Line.LINECmpd_119 Bus1=1741 Bus2=1963 phases=3 Linecode=35_SAC_PC Length=12.86728 Units=m
New Line.LINECmpd_120 Bus1=924 Bus2=1126 phases=3 Linecode=2c_.04 Length=8.97456 Units=m
New Line.LINECmpd_121 Bus1=127 Bus2=210 phases=3 Linecode=2c_.04 Length=7.79695 Units=m
New Line.LINECmpd_122 Bus1=1280 Bus2=1423 phases=3 Linecode=.04_LTC Length=8.15287 Units=m
New Line.LINECmpd_123 Bus1=295 Bus2=495 phases=3 Linecode=2c_.04 Length=12.5757 Units=m
New Line.LINECmpd_124 Bus1=1574 Bus2=1898 phases=3 Linecode=35_SAC_PC Length=19.82341 Units=m
New Line.LINECmpd_125 Bus1=1853 Bus2=2067 phases=3 Linecode=3c_95_SAC_XC Length=10.5242 Units=m
New Line.LINECmpd_126 Bus1=191 Bus2=436 phases=3 Linecode=2c_.04 Length=7.43592 Units=m
New Line.LINECmpd_127 Bus1=1384 Bus2=1463 phases=3 Linecode=3c_95_SAC_XC Length=2.2931 Units=m
New Line.LINECmpd_128 Bus1=1388 Bus2=1628 phases=3 Linecode=35_SAC_PC Length=13.68898 Units=m
New Line.LINECmpd_129 Bus1=2263 Bus2=2543 phases=3 Linecode=35_SAC_PC Length=11.758 Units=m
New Line.LINECmpd_130 Bus1=1255 Bus2=1520 phases=3 Linecode=2c_.04 Length=20.40358 Units=m
New Line.LINECmpd_131 Bus1=1910 Bus2=2232 phases=3 Linecode=35_SAC_PC Length=12.92958 Units=m
New Line.LINECmpd_132 Bus1=1896 Bus2=1936 phases=3 Linecode=25_SAC_XC Length=7.16675 Units=m
New Line.LINECmpd_133 Bus1=210 Bus2=500 phases=3 Linecode=2c_.04 Length=12.73937 Units=m
New Line.LINECmpd_134 Bus1=346 Bus2=531 phases=3 Linecode=16_PSC Length=9.86243 Units=m
New Line.LINECmpd_135 Bus1=1344 Bus2=1610 phases=3 Linecode=2c_.04 Length=13.78841 Units=m
New Line.LINECmpd_136 Bus1=276 Bus2=509 phases=3 Linecode=2c_.04 Length=5.56752 Units=m
New Line.LINECmpd_137 Bus1=944 Bus2=1081 phases=3 Linecode=4c_.06 Length=26.72478 Units=m
New Line.LINECmpd_138 Bus1=2013 Bus2=2337 phases=3 Linecode=35_SAC_PC Length=14.06501 Units=m
New Line.LINECmpd_139 Bus1=254 Bus2=325 phases=3 Linecode=4c_.25 Length=13.27487 Units=m
New Line.LINECmpd_140 Bus1=1314 Bus2=1505 phases=3 Linecode=35_SAC_PC Length=9.98761 Units=m
New Line.LINECmpd_141 Bus1=1805 Bus2=1905 phases=3 Linecode=3c_95_SAC_XC Length=3.0097 Units=m
New Line.LINECmpd_142 Bus1=2170 Bus2=2554 phases=3 Linecode=35_SAC_PC Length=18.96319 Units=m
New Line.LINECmpd_143 Bus1=2170 Bus2=2402 phases=3 Linecode=3c_95_SAC_XC Length=12.1654 Units=m
New Line.LINECmpd_144 Bus1=104 Bus2=365 phases=3 Linecode=2c_.04 Length=8.411102 Units=m
New Line.LINECmpd_145 Bus1=365 Bus2=766 phases=3 Linecode=2c_.04 Length=14.31898 Units=m
New Line.LINECmpd_146 Bus1=403 Bus2=494 phases=3 Linecode=2c_.04 Length=7.70971 Units=m
New Line.LINECmpd_147 Bus1=108 Bus2=207 phases=3 Linecode=4c_.12 Length=23.03866 Units=m
New Line.LINECmpd_148 Bus1=1463 Bus2=1574 phases=3 Linecode=3c_95_SAC_XC Length=4.67414 Units=m
New Line.LINECmpd_149 Bus1=1127 Bus2=1425 phases=3 Linecode=2c_.04 Length=26.82684 Units=m
New Line.LINECmpd_150 Bus1=1501 Bus2=1568 phases=3 Linecode=3c_95_SAC_XC Length=4.4088 Units=m
New Line.LINECmpd_151 Bus1=1233 Bus2=1274 phases=3 Linecode=2c_.04 Length=0.6053 Units=m
New Line.LINECmpd_152 Bus1=1233 Bus2=1344 phases=3 Linecode=2c_.04 Length=2.94719 Units=m
New Line.LINECmpd_153 Bus1=51 Bus2=89 phases=3 Linecode=2c_.04 Length=6.37431 Units=m
New Line.LINECmpd_154 Bus1=421 Bus2=619 phases=3 Linecode=2c_.04 Length=3.43354 Units=m
New Line.LINECmpd_155 Bus1=1388 Bus2=1676 phases=3 Linecode=35_SAC_PC Length=10.59747 Units=m
New Line.LINECmpd_156 Bus1=463 Bus2=596 phases=3 Linecode=4c_.12 Length=7.96498 Units=m
New Line.LINECmpd_157 Bus1=443 Bus2=809 phases=3 Linecode=2c_.04 Length=13.79845 Units=m
New Line.LINECmpd_158 Bus1=1353 Bus2=1594 phases=3 Linecode=35_SAC_PC Length=11.19802 Units=m
New Line.LINECmpd_159 Bus1=1896 Bus2=1958 phases=3 Linecode=25_SAC_XC Length=13.0997 Units=m
New Line.LINECmpd_160 Bus1=1516 Bus2=1720 phases=3 Linecode=35_SAC_PC Length=10.77636 Units=m
New Line.LINECmpd_161 Bus1=1905 Bus2=2169 phases=3 Linecode=35_SAC_PC Length=12.58919 Units=m
New Line.LINECmpd_162 Bus1=1702 Bus2=1743 phases=3 Linecode=25_SAC_XC Length=8.6466 Units=m
New Line.LINECmpd_163 Bus1=41 Bus2=72 phases=3 Linecode=2c_.04 Length=14.08716 Units=m
New Line.LINECmpd_164 Bus1=1583 Bus2=1634 phases=3 Linecode=25_SAC_XC Length=10.1348 Units=m
New Line.LINECmpd_165 Bus1=1469 Bus2=1677 phases=3 Linecode=35_SAC_PC Length=10.97117 Units=m
New Line.LINECmpd_166 Bus1=1314 Bus2=1384 phases=3 Linecode=3c_95_SAC_XC Length=2.52829 Units=m
New Line.LINECmpd_167 Bus1=1195 Bus2=1249 phases=3 Linecode=3c_185_SAC_XC Length=1.23211 Units=m
New Line.LINECmpd_168 Bus1=1805 Bus2=1846 phases=3 Linecode=25_SAC_XC Length=11.497 Units=m
New Line.LINECmpd_169 Bus1=128 Bus2=165 phases=3 Linecode=4c_.25 Length=34.69159 Units=m
New Line.LINECmpd_170 Bus1=305 Bus2=388 phases=3 Linecode=4c_.25 Length=36.8332 Units=m
New Line.LINECmpd_171 Bus1=574 Bus2=808 phases=3 Linecode=2c_.04 Length=9.40283 Units=m
New Line.LINECmpd_172 Bus1=271 Bus2=403 phases=3 Linecode=2c_.04 Length=12.62904 Units=m
New Line.LINECmpd_173 Bus1=41 Bus2=47 phases=3 Linecode=4c_.25 Length=30.3743 Units=m
New Line.LINECmpd_174 Bus1=2402 Bus2=2507 phases=3 Linecode=3c_95_SAC_XC Length=7.4674 Units=m
New Line.LINECmpd_175 Bus1=2235 Bus2=2289 phases=3 Linecode=25_SAC_XC Length=18.1733 Units=m
New Line.LINECmpd_176 Bus1=1388 Bus2=1469 phases=3 Linecode=3c_185_SAC_XC Length=7.20893 Units=m
New Line.LINECmpd_177 Bus1=619 Bus2=924 phases=3 Linecode=2c_.04 Length=6.2693 Units=m
New Line.LINECmpd_178 Bus1=325 Bus2=378 phases=3 Linecode=4c_.25 Length=17.8306 Units=m
New Line.LINECmpd_179 Bus1=199 Bus2=336 phases=3 Linecode=2c_.04 Length=4.54177 Units=m
New Line.LINECmpd_180 Bus1=388 Bus2=585 phases=3 Linecode=4c_.25 Length=45.284195 Units=m
New Line.LINECmpd_181 Bus1=195 Bus2=355 phases=3 Linecode=2c_.04 Length=5.672701 Units=m
New Line.LINECmpd_182 Bus1=147 Bus2=174 phases=3 Linecode=2c_.04 Length=9.6384 Units=m
New Line.LINECmpd_183 Bus1=369 Bus2=430 phases=3 Linecode=2c_.04 Length=6.7731 Units=m
New Line.LINECmpd_184 Bus1=76 Bus2=92 phases=3 Linecode=4c_.25 Length=16.0646 Units=m
New Line.LINECmpd_185 Bus1=1814 Bus2=1854 phases=3 Linecode=25_SAC_XC Length=7.83485 Units=m
New Line.LINECmpd_186 Bus1=295 Bus2=346 phases=3 Linecode=4c_.12 Length=15.4897 Units=m
New Line.LINECmpd_187 Bus1=1294 Bus2=1388 phases=3 Linecode=3c_185_SAC_XC Length=10.083655 Units=m
New Line.LINECmpd_188 Bus1=1583 Bus2=1702 phases=3 Linecode=3c_185_SAC_XC Length=7.53048 Units=m
New Line.LINECmpd_189 Bus1=181 Bus2=237 phases=3 Linecode=2c_.04 Length=10.62024 Units=m
New Line.LINECmpd_190 Bus1=548 Bus2=614 phases=3 Linecode=3c_185_SAC_XC Length=11.9474 Units=m
New Line.LINECmpd_191 Bus1=207 Bus2=250 phases=3 Linecode=4c_.12 Length=16.7095 Units=m
New Line.LINECmpd_192 Bus1=1763 Bus2=1805 phases=3 Linecode=3c_95_SAC_XC Length=2.35218 Units=m
New Line.LINECmpd_193 Bus1=1931 Bus2=1973 phases=3 Linecode=3c_95_SAC_XC Length=9.2391 Units=m
New Line.LINECmpd_194 Bus1=2291 Bus2=2346 phases=3 Linecode=3c_95_SAC_XC Length=5.952 Units=m
New Line.LINECmpd_195 Bus1=1516 Bus2=1561 phases=3 Linecode=3c_185_SAC_XC Length=3.46604 Units=m
New Line.LINECmpd_196 Bus1=165 Bus2=195 phases=3 Linecode=2c_.04 Length=12.00106 Units=m
New Line.LINECmpd_197 Bus1=440 Bus2=571 phases=3 Linecode=2c_.04 Length=15.1955 Units=m
New Line.LINECmpd_198 Bus1=2507 Bus2=2561 phases=3 Linecode=3c_95_SAC_XC Length=3.6796 Units=m
New Line.LINECmpd_199 Bus1=1164 Bus2=1201 phases=3 Linecode=.04_LTC Length=7.3081 Units=m
New Line.LINECmpd_200 Bus1=1698 Bus2=1741 phases=3 Linecode=3c_95_SAC_XC Length=8.9857 Units=m
New Line.LINECmpd_201 Bus1=2291 Bus2=2344 phases=3 Linecode=25_SAC_XC Length=18.6748 Units=m
New Line.LINECmpd_202 Bus1=346 Bus2=463 phases=3 Linecode=4c_.12 Length=14.6333 Units=m
New Line.LINECmpd_203 Bus1=1873 Bus2=1910 phases=3 Linecode=3c_95_SAC_XC Length=9.8573 Units=m
New Line.LINECmpd_204 Bus1=2346 Bus2=2394 phases=3 Linecode=25_SAC_XC Length=18.5563 Units=m
New Line.LINECmpd_205 Bus1=495 Bus2=562 phases=3 Linecode=2c_.04 Length=7.1418 Units=m
New Line.LINECmpd_206 Bus1=1835 Bus2=1876 phases=3 Linecode=25_SAC_XC Length=7.08852 Units=m
New Line.LINECmpd_207 Bus1=92 Bus2=108 phases=3 Linecode=4c_.25 Length=27.6859 Units=m
